
  Marvin  03190807003D          

 60 63  0  0  0  0            999 V2000
    1.4991    0.8695   -0.6942 C   0  0  2  0  0  0  0  0  0  0  0  0
    1.6294   -0.6446   -0.7654 C   0  0  2  0  0  0  0  0  0  0  0  0
    2.7859    1.6489   -0.4175 C   0  0  1  0  0  0  0  0  0  0  0  0
    0.3576    1.2641    0.2451 C   0  0  0  0  0  0  0  0  0  0  0  0
    0.3437   -1.4037   -0.6423 C   0  0  0  0  0  0  0  0  0  0  0  0
    2.6354   -1.1785    0.2058 C   0  0  0  0  0  0  0  0  0  0  0  0
    2.1532   -0.9458   -2.0604 O   0  0  0  0  0  0  0  0  0  0  0  0
    3.7758    0.9909    0.5061 C   0  0  0  0  0  0  0  0  0  0  0  0
    3.4547    1.8964   -1.7018 N   0  0  1  0  0  0  0  0  0  0  0  0
   -0.9394    0.7004   -0.3417 C   0  0  1  0  0  0  0  0  0  0  0  0
   -0.8401   -0.7981   -0.4659 C   0  0  0  0  0  0  0  0  0  0  0  0
    0.3780   -2.7494   -0.7113 O   0  0  0  0  0  0  0  0  0  0  0  0
    3.6718   -0.3482    0.7973 C   0  0  0  0  0  0  0  0  0  0  0  0
    2.5835   -2.3518    0.5122 O   0  0  0  0  0  0  0  0  0  0  0  0
    4.7654    1.7159    1.0481 O   0  0  0  0  0  0  0  0  0  0  0  0
    2.6769    2.8280   -2.5295 C   0  0  0  0  0  0  0  0  0  0  0  0
    4.8226    2.3908   -1.4963 C   0  0  0  0  0  0  0  0  0  0  0  0
   -2.0846    1.1139    0.5869 C   0  0  0  0  0  0  0  0  0  0  0  0
   -2.0205   -1.5861   -0.4110 C   0  0  0  0  0  0  0  0  0  0  0  0
    4.6331   -0.9565    1.7308 C   0  0  0  0  0  0  0  0  0  0  0  0
   -3.3645    0.3747    0.3035 C   0  0  0  0  0  0  0  0  0  0  0  0
   -3.3238   -0.9392   -0.1659 C   0  0  0  0  0  0  0  0  0  0  0  0
   -1.9571   -2.7925   -0.5663 O   0  0  0  0  0  0  0  0  0  0  0  0
    4.4761   -0.7955    3.0597 N   0  0  0  0  0  0  0  0  0  0  0  0
    5.5695   -1.6045    1.3030 O   0  0  0  0  0  0  0  0  0  0  0  0
   -4.5863    0.9924    0.5101 C   0  0  0  0  0  0  0  0  0  0  0  0
   -4.5166   -1.6407   -0.3750 C   0  0  0  0  0  0  0  0  0  0  0  0
   -5.7683    0.2980    0.2751 C   0  0  0  0  0  0  0  0  0  0  0  0
   -4.6320    2.3182    0.9560 N   0  0  1  0  0  0  0  0  0  0  0  0
   -5.7335   -1.0127   -0.1561 C   0  0  0  0  0  0  0  0  0  0  0  0
   -4.4825   -2.9324   -0.7916 O   0  0  0  0  0  0  0  0  0  0  0  0
   -5.3336    3.1744   -0.0098 C   0  0  0  0  0  0  0  0  0  0  0  0
   -5.2521    2.4057    2.2848 C   0  0  0  0  0  0  0  0  0  0  0  0
    1.1732    1.1817   -1.6863 H   0  0  0  0  0  0  0  0  0  0  0  0
   -1.1041    1.1361   -1.3272 H   0  0  0  0  0  0  0  0  0  0  0  0
    2.5123    2.6132    0.0109 H   0  0  0  0  0  0  0  0  0  0  0  0
    0.5302    0.8422    1.2352 H   0  0  0  0  0  0  0  0  0  0  0  0
    0.2923    2.3500    0.3127 H   0  0  0  0  0  0  0  0  0  0  0  0
    2.2805   -1.8905   -2.2231 H   0  0  0  0  0  0  0  0  0  0  0  0
    0.7849   -3.1385   -1.4976 H   0  0  0  0  0  0  0  0  0  0  0  0
    5.4220    1.2388    1.5738 H   0  0  0  0  0  0  0  0  0  0  0  0
    2.4689    3.7335   -1.9596 H   0  0  0  0  0  0  0  0  0  0  0  0
    3.2472    3.0837   -3.4225 H   0  0  0  0  0  0  0  0  0  0  0  0
    1.7375    2.3580   -2.8205 H   0  0  0  0  0  0  0  0  0  0  0  0
    5.4335    1.5998   -1.0614 H   0  0  0  0  0  0  0  0  0  0  0  0
    5.2474    2.6930   -2.4536 H   0  0  0  0  0  0  0  0  0  0  0  0
    4.8021    3.2466   -0.8216 H   0  0  0  0  0  0  0  0  0  0  0  0
   -1.7882    0.9208    1.6179 H   0  0  0  0  0  0  0  0  0  0  0  0
   -2.2630    2.1829    0.4704 H   0  0  0  0  0  0  0  0  0  0  0  0
    3.6894   -0.3447    3.4040 H   0  0  0  0  0  0  0  0  0  0  0  0
    5.1499   -1.1306    3.6717 H   0  0  0  0  0  0  0  0  0  0  0  0
   -6.7185    0.7865    0.4327 H   0  0  0  0  0  0  0  0  0  0  0  0
   -6.6554   -1.5492   -0.3253 H   0  0  0  0  0  0  0  0  0  0  0  0
   -4.4608   -3.5775   -0.0715 H   0  0  0  0  0  0  0  0  0  0  0  0
   -6.3540    2.8143   -0.1405 H   0  0  0  0  0  0  0  0  0  0  0  0
   -5.3547    4.1991    0.3614 H   0  0  0  0  0  0  0  0  0  0  0  0
   -4.8126    3.1453   -0.9668 H   0  0  0  0  0  0  0  0  0  0  0  0
   -4.6719    1.8176    2.9959 H   0  0  0  0  0  0  0  0  0  0  0  0
   -5.2749    3.4466    2.6073 H   0  0  0  0  0  0  0  0  0  0  0  0
   -6.2696    2.0177    2.2372 H   0  0  0  0  0  0  0  0  0  0  0  0
  1  2  1  0  0  0  0
  1  3  1  0  0  0  0
  1  4  1  0  0  0  0
  1 34  1  0  0  0  0
  2  5  1  0  0  0  0
  2  6  1  0  0  0  0
  2  7  1  0  0  0  0
  3  8  1  0  0  0  0
  3  9  1  0  0  0  0
  3 36  1  0  0  0  0
  4 10  1  0  0  0  0
  4 37  1  0  0  0  0
  4 38  1  0  0  0  0
  5 11  2  0  0  0  0
  5 12  1  0  0  0  0
  6 13  1  0  0  0  0
  6 14  2  0  0  0  0
  7 39  1  0  0  0  0
  8 15  1  0  0  0  0
  8 13  2  0  0  0  0
  9 16  1  0  0  0  0
  9 17  1  0  0  0  0
 10 18  1  0  0  0  0
 10 11  1  0  0  0  0
 10 35  1  0  0  0  0
 11 19  1  0  0  0  0
 12 40  1  0  0  0  0
 13 20  1  0  0  0  0
 15 41  1  0  0  0  0
 16 42  1  0  0  0  0
 16 43  1  0  0  0  0
 16 44  1  0  0  0  0
 17 45  1  0  0  0  0
 17 46  1  0  0  0  0
 17 47  1  0  0  0  0
 18 21  1  0  0  0  0
 18 48  1  0  0  0  0
 18 49  1  0  0  0  0
 19 22  1  0  0  0  0
 19 23  2  0  0  0  0
 20 24  1  0  0  0  0
 20 25  2  0  0  0  0
 21 26  1  0  0  0  0
 21 22  2  0  0  0  0
 22 27  1  0  0  0  0
 24 50  1  0  0  0  0
 24 51  1  0  0  0  0
 26 28  2  0  0  0  0
 26 29  1  0  0  0  0
 27 30  2  0  0  0  0
 27 31  1  0  0  0  0
 28 30  1  0  0  0  0
 28 52  1  0  0  0  0
 29 32  1  0  0  0  0
 29 33  1  0  0  0  0
 30 53  1  0  0  0  0
 31 54  1  0  0  0  0
 32 55  1  0  0  0  0
 32 56  1  0  0  0  0
 32 57  1  0  0  0  0
 33 58  1  0  0  0  0
 33 59  1  0  0  0  0
 33 60  1  0  0  0  0
M  END
$$$$
